* Y:\Documents\Lettuce Buddy HW\LadyBug Hydro\Laydybug Shield\LTSpice\EC_Circuit.asc
V1 VGND 0 2.5
R1 VGND N004 1K
R2 N004 N003 1K
R3 N008 N006 22K
R4 VGND N008 10K
C1 N012 N006 100n
C2 N006 N003 100n
D1 N008 N012 1N4148
D2 N012 N008 1N4148
C3 VGND N004 100n
XU2 N004 N008 +5V 0 N006 TL072
V2 +5V 0 5
R5 N006 N005 100K
R6 N005 VGND 22K
XU1 N005 N011 +5V 0 N007 TL072
R7 N011 VGND 462
R8 N011 N007 1000
XU3 N007 N009 +5V 0 N010 TL072
D3 N010 N002 D
D4 N002 N009 D
XU4 N009 N001 +5V 0 N001 TL072
C4 N009 VGND 1µ
R9 N002 N001 1K
.model D D
.lib C:\Program Files (x86)\LTC\LTspiceIV\lib\cmp\standard.dio
.tran 0 .1 0 .01 startup
* .step param R list 1000 1500 2000 3000 4000
.lib TL072.sub
.backanno
.end
